power-flow-agent/results/ieee14/2026-09-26/no-llm/rule_based/traces/02_case14-ambiguous-007-s0.transcript.txt
==============================================================================
TRANSCRIPT  rule_based  |  none:rule_based  |  case14  |  case14-ambiguous-007-s0  run 0
==============================================================================
date: 2026-09-26   seed: 0   difficulty: ambiguous   tool variant: load_split

[system]   no LLM; deterministic parser (methods/deterministic/rule_based.py)

[user]
Load the 14-bus test case (case14) and disconnect the line between bus 6 and bus 13 (1-based).

[planner output]
[
 {
  "tool": "load_case",
  "args": {
   "case_name": "case14"
  }
 },
 {
  "tool": "disconnect_line",
  "args": {
   "from_bus": 6,
   "to_bus": 13
  }
 }
]

--- round 1 ---
[tool load_case]   (gate: not applied)
{"case_name": "case14", "n_buses": 14, "n_generators": 5, "n_lines": 20, "n_loads": 11, "total_load_mw": 261.903, "total_gen_capacity_mw": 772.4}
[tool disconnect_line]   (gate: pass)
{"applied": {"tool": "disconnect_line", "from_bus": 6, "to_bus": 13, "in_service": false}, "converged": true, "total_generation_mw": 276.663, "total_load_mw": 261.903, "total_loss_mw": 14.761, "n_voltage_violations": 5, "n_thermal_violations": 4, "note": "Change applied and the network re-solved. Call run_powerflow to get the bus voltages and branch flows of the new state."}
[tool run_powerflow]   (gate: pass)
{"case_name": "case14", "converged": true, "bus_voltages": [{"bus_id": 1, "vm_pu": 1.06, "va_deg": 0.0, "is_violation": true, "violation_type": "overvoltage"}, {"bus_id": 2, "vm_pu": 1.045, "va_deg": -5.104, "is_violation": false, "violation_type": null}, {"bus_id": 3, "vm_pu": 1.01, "va_deg": -13.05, "is_violation": false, "violation_type": null}, {"bus_id": 4, "vm_pu": 1.015925, "va_deg": -10.524, "is_violation": false, "violation_type": null}, {"bus_id": 5, "vm_pu": 1.018662, "va_deg": -8.902, "is_violation": false, "violation_type": null}, {"bus_id": 6, "vm_pu": 1.07, "va_deg": -14.072, "is_violation": true, "violation_type": "overvoltage"}, {"bus_id": 7, "vm_pu": 1.057167, "va_deg": -13.828, "is_violation": true, "violation_type": "overvoltage"}, {"bus_id": 8, "vm_pu": 1.09, "va_deg": -13.828, "is_violation": true, "violation_type": "overvoltage"}, {"bus_id": 9, "vm_pu": 1.047718, "va_deg": -15.551, "is_violation": false, "violation_type": null}, {"bus_id": 10, "vm_pu": 1.04365, "va_deg": -15.587, "is_violation": false, "violation_type": null}, {"bus_id": 11, "vm_pu": 1.053089, "va_deg": -14.955, "is_violation": true, "violation_type": "overvoltage"}, {"bus_id": 12, "vm_pu": 1.03333, "va_deg": -16.262, "is_violation": false, "violation_type": null}, {"bus_id": 13, "vm_pu": 0.998928, "va_deg": -17.232, "is_violation": false, "violation_type": null}, {"bus_id": 14, "vm_pu": 1.008747, "va_deg": -17.286, "is_violation": false, "violation_type": null}], "line_flows": [{"line_id": 0, "from_bus": 1, "to_bus": 2, "p_from_mw": 160.569, "q_from_mvar": -21.262, "loading_percent": 81.9, "is_violation": false}, {"line_id": 1, "from_bus": 1, "to_bus": 5, "p_from_mw": 76.588, "q_from_mvar": 4.16, "loading_percent": 81.16, "is_violation": false}, {"line_id": 2, "from_bus": 2, "to_bus": 3, "p_from_mw": 75.065, "q_from_mvar": 3.384, "loading_percent": 81.98, "is_violation": false}, {"line_id": 3, "from_bus": 2, "to_bus": 4, "p_from_mw": 57.216, "q_from_mvar": -0.79, "loading_percent": 81.52, "is_violation": false}, {"line_id": 4, "from_bus": 2, "to_bus": 5, "p_from_mw": 41.694, "q_from_mvar": 1.628, "loading_percent": 80.37, "is_violation": false}, {"line_id": 5, "from_bus": 3, "to_bus": 4, "p_from_mw": -23.914, "q_from_mvar": 5.801, "loading_percent": 83.02, "is_violation": false}, {"line_id": 6, "from_bus": 4, "to_bus": 5, "p_from_mw": -64.833, "q_from_mvar": 14.937, "loading_percent": 84.25, "is_violation": false}, {"line_id": 7, "from_bus": 6, "to_bus": 11, "p_from_mw": 10.672, "q_from_mvar": 4.069, "loading_percent": 111.84, "is_violation": true}, {"line_id": 8, "from_bus": 6, "to_bus": 12, "p_from_mw": 19.529, "q_from_mvar": 6.271, "loading_percent": 200.63, "is_violation": true}, {"line_id": 9, "from_bus": 6, "to_bus": 13, "p_from_mw": 0.0, "q_from_mvar": 0.0, "loading_percent": 0.0, "is_violation": false}, {"line_id": 10, "from_bus": 9, "to_bus": 10, "p_from_mw": 2.38, "q_from_mvar": 4.149, "loading_percent": 48.37, "is_violation": false}, {"line_id": 11, "from_bus": 9, "to_bus": 14, "p_from_mw": 15.576, "q_from_mvar": 7.958, "loading_percent": 138.63, "is_violation": true}, {"line_id": 12, "from_bus": 10, "to_bus": 11, "p_from_mw": -7.182, "q_from_mvar": -2.026, "loading_percent": 75.47, "is_violation": false}, {"line_id": 13, "from_bus": 12, "to_bus": 13, "p_from_mw": 12.821, "q_from_mvar": 3.689, "loading_percent": 134.92, "is_violation": true}, {"line_id": 14, "from_bus": 13, "to_bus": 14, "p_from_mw": -0.895, "q_from_mvar": -2.378, "loading_percent": 25.7, "is_violation": false}, {"line_id": 100000, "from_bus": 4, "to_bus": 7, "p_from_mw": 30.269, "q_from_mvar": -8.261, "loading_percent": 84.52, "is_violation": false}, {"line_id": 100001, "from_bus": 4, "to_bus": 9, "p_from_mw": 17.306, "q_from_mvar": 0.893, "loading_percent": 86.19, "is_violation": false}, {"line_id": 100002, "from_bus": 5, "to_bus": 6, "p_from_mw": 41.817, "q_from_mvar": 11.856, "loading_percent": 75.89, "is_violation": false}, {"line_id": 100003, "from_bus": 7, "to_bus": 8, "p_from_mw": 0.0, "q_from_mvar": -19.705, "loading_percent": 91.85, "is_violation": false}, {"line_id": 100004, "from_bus": 7, "to_bus": 9, "p_from_mw": 30.269, "q_from_mvar": 9.535, "loading_percent": 88.57, "is_violation": false}], "total_generation_mw": 276.663, "total_load_mw": 261.903, "total_loss_mw": 14.761, "voltage_violations": [{"bus_id": 1, "vm_pu": 1.06, "va_deg": 0.0, "is_violation": true, "violation_type": "overvoltage"}, {"bus_id": 6, "vm_pu": 1.07, "va_deg": -14.072, "is_violation": true, "violation_type": "overvoltage"}, {"bus_id": 7, "vm_pu": 1.057167, "va_deg": -13.828, "is_violation": true, "violation_type": "overvoltage"}, {"bus_id": 8, "vm_pu": 1.09, "va_deg": -13.828, "is_violation": true, "violation_type": "overvoltage"}, {"bus_id": 11, "vm_pu": 1.053089, "va_deg": -14.955, "is_violation": true, "violation_type": "overvoltage"}], "thermal_violations": [{"line_id": 7, "from_bus": 6, "to_bus": 11, "p_from_mw": 10.672, "q_from_mvar": 4.069, "loading_percent": 111.84, "is_violation": true}, {"line_id": 8, "from_bus": 6, "to_bus": 12, "p_from_mw": 19.529, "q_from_mvar": 6.271, "loading_percent": 200.63, "is_violation": true}, {"line_id": 11, "from_bus": 9, "to_bus": 14, "p_from_mw": 15.576, "q_from_mvar": 7.958, "loading_percent": 138.63, "is_violation": true}, {"line_id": 13, "from_bus": 12, "to_bus": 13, "p_from_mw": 12.821, "q_from_mvar": 3.689, "loading_percent": 134.92, "is_violation": true}], "summary_text": "", "solver_backend": "pandapower", "llm_prompt": null, "llm_response": null}

[final answer]
{"formulation": [{"tool": "load_case", "args": {"case_name": "case14"}}, {"tool": "disconnect_line", "args": {"from_bus": 6, "to_bus": 13}}], "converged": true, "summary": "Loaded case14 (14 buses, 20 branches). disconnect_line: converged; load 261.903 MW, generation 276.663 MW, losses 14.761 MW; 0 voltage and 0 thermal violation(s). run_powerflow: converged; load 261.903 MW, generation 276.663 MW, losses 14.761 MW; 5 voltage and 4 thermal violation(s).", "answer": "run_powerflow: converged; load 261.903 MW, generation 276.663 MW, losses 14.761 MW; 5 voltage and 4 thermal violation(s).", "bus_voltages": [{"bus_id": 1, "vm_pu": 1.06, "va_deg": 0.0}, {"bus_id": 2, "vm_pu": 1.045, "va_deg": -5.104}, {"bus_id": 3, "vm_pu": 1.01, "va_deg": -13.05}, {"bus_id": 4, "vm_pu": 1.015925, "va_deg": -10.524}, {"bus_id": 5, "vm_pu": 1.018662, "va_deg": -8.902}, {"bus_id": 6, "vm_pu": 1.07, "va_deg": -14.072}, {"bus_id": 7, "vm_pu": 1.057167, "va_deg": -13.828}, {"bus_id": 8, "vm_pu": 1.09, "va_deg": -13.828}, {"bus_id": 9, "vm_pu": 1.047718, "va_deg": -15.551}, {"bus_id": 10, "vm_pu": 1.04365, "va_deg": -15.587}, {"bus_id": 11, "vm_pu": 1.053089, "va_deg": -14.955}, {"bus_id": 12, "vm_pu": 1.03333, "va_deg": -16.262}, {"bus_id": 13, "vm_pu": 0.998928, "va_deg": -17.232}, {"bus_id": 14, "vm_pu": 1.008747, "va_deg": -17.286}], "line_flows": [{"line_id": 0, "from_bus": 1, "to_bus": 2, "p_from_mw": 160.569, "loading_percent": 81.9}, {"line_id": 1, "from_bus": 1, "to_bus": 5, "p_from_mw": 76.588, "loading_percent": 81.16}, {"line_id": 2, "from_bus": 2, "to_bus": 3, "p_from_mw": 75.065, "loading_percent": 81.98}, {"line_id": 3, "from_bus": 2, "to_bus": 4, "p_from_mw": 57.216, "loading_percent": 81.52}, {"line_id": 4, "from_bus": 2, "to_bus": 5, "p_from_mw": 41.694, "loading_percent": 80.37}, {"line_id": 5, "from_bus": 3, "to_bus": 4, "p_from_mw": -23.914, "loading_percent": 83.02}, {"line_id": 6, "from_bus": 4, "to_bus": 5, "p_from_mw": -64.833, "loading_percent": 84.25}, {"line_id": 7, "from_bus": 6, "to_bus": 11, "p_from_mw": 10.672, "loading_percent": 111.84}, {"line_id": 8, "from_bus": 6, "to_bus": 12, "p_from_mw": 19.529, "loading_percent": 200.63}, {"line_id": 9, "from_bus": 6, "to_bus": 13, "p_from_mw": 0.0, "loading_percent": 0.0}, {"line_id": 10, "from_bus": 9, "to_bus": 10, "p_from_mw": 2.38, "loading_percent": 48.37}, {"line_id": 11, "from_bus": 9, "to_bus": 14, "p_from_mw": 15.576, "loading_percent": 138.63}, {"line_id": 12, "from_bus": 10, "to_bus": 11, "p_from_mw": -7.182, "loading_percent": 75.47}, {"line_id": 13, "from_bus": 12, "to_bus": 13, "p_from_mw": 12.821, "loading_percent": 134.92}, {"line_id": 14, "from_bus": 13, "to_bus": 14, "p_from_mw": -0.895, "loading_percent": 25.7}, {"line_id": 100000, "from_bus": 4, "to_bus": 7, "p_from_mw": 30.269, "loading_percent": 84.52}, {"line_id": 100001, "from_bus": 4, "to_bus": 9, "p_from_mw": 17.306, "loading_percent": 86.19}, {"line_id": 100002, "from_bus": 5, "to_bus": 6, "p_from_mw": 41.817, "loading_percent": 75.89}, {"line_id": 100003, "from_bus": 7, "to_bus": 8, "p_from_mw": 0.0, "loading_percent": 91.85}, {"line_id": 100004, "from_bus": 7, "to_bus": 9, "p_from_mw": 30.269, "loading_percent": 88.57}], "total_generation_mw": 276.663, "total_load_mw": 261.903, "total_loss_mw": 14.761, "violations": {"voltage": [{"bus_id": 1, "vm_pu": 1.06}, {"bus_id": 6, "vm_pu": 1.07}, {"bus_id": 7, "vm_pu": 1.057167}, {"bus_id": 8, "vm_pu": 1.09}, {"bus_id": 11, "vm_pu": 1.053089}], "thermal": [{"line_id": 7, "loading_percent": 111.84}, {"line_id": 8, "loading_percent": 200.63}, {"line_id": 11, "loading_percent": 138.63}, {"line_id": 13, "loading_percent": 134.92}]}, "next_step": "Review the listed violations and consider remedial actions.", "cannot_answer": null}
